external_data/tamu_texas_td/distribution_sample/p1uhs0_1247--p1udt64/Lines.dss
New Line.l(r:p1udt62lv-p1ulv64) Units=km Length=0.0893703 bus1=p1udt62lv.1.2 bus2=p1ulv64.1.2 switch=n enabled=y phases=2 Linecode=1P_OH_AL_4/0_Zuzara_2

New Line.l(r:p1udt62lv-p1ulv8779) Units=km Length=0.018106100000000003 bus1=p1udt62lv.1.2 bus2=p1ulv8779.1.2 switch=n enabled=y phases=2 Linecode=1P_OH_AL_2/0_Rucina_2

New Line.l(r:p1udm239-p1ulv4411) Units=km Length=0.0189856 bus1=p1udm239.1.2 bus2=p1ulv4411.1.2 switch=n enabled=y phases=2 Linecode=1P_UG_AL_1/0_Brenau_2

New Line.l(r:p1udm239-p1udt66lv) Units=km Length=0.0859092 bus1=p1udt66lv.1.2 bus2=p1udm239.1.2 switch=n enabled=y phases=2 Linecode=1P_UG_AL_1/0_Brenau_2

New Line.l(r:p1udm240-p1ulv11092) Units=km Length=0.019856500000000003 bus1=p1udm240.1.2 bus2=p1ulv11092.1.2 switch=n enabled=y phases=2 Linecode=1P_UG_AL_1/0_Brenau_2

New Line.l(r:p1udm238-p1ulv69) Units=km Length=0.0119745 bus1=p1udm238.1.2 bus2=p1ulv69.1.2 switch=n enabled=y phases=2 Linecode=1P_UG_AL_1/0_Brenau_2

New Line.l(r:p1udm238-p1udm240) Units=km Length=0.00998072 bus1=p1udm240.1.2 bus2=p1udm238.1.2 switch=n enabled=y phases=2 Linecode=1P_UG_AL_1/0_Brenau_2

New Line.l(r:p1udm240-p1udt66lv) Units=km Length=0.0199612 bus1=p1udt66lv.1.2 bus2=p1udm240.1.2 switch=n enabled=y phases=2 Linecode=1P_UG_AL_4/0_Sweetbriar_2

New Line.l(r:p1udt84lv-p1ulv87) Units=km Length=0.0206433 bus1=p1udt84lv.1.2 bus2=p1ulv87.1.2 switch=n enabled=y phases=2 Linecode=1P_OH_AL_2/0_Rucina_2

New Line.l(r:p1udm316-p1ulv205) Units=km Length=0.0270398 bus1=p1udm316.1.2 bus2=p1ulv205.1.2 switch=n enabled=y phases=2 Linecode=1P_OH_AL_4/0_Zuzara_2

New Line.l(r:p1udm316-p1udt84lv) Units=km Length=0.017719700000000005 bus1=p1udt84lv.1.2 bus2=p1udm316.1.2 switch=n enabled=y phases=2 Linecode=1P_OH_AL_2/0_Rucina_2

New Line.l(r:p1udt85lv-p1ulv8935) Units=km Length=0.029938 bus1=p1udt85lv.1.2 bus2=p1ulv8935.1.2 switch=n enabled=y phases=2 Linecode=1P_OH_AL_4/0_Zuzara_2

New Line.l(r:p1udm318-p1ulv1853) Units=km Length=0.0306808 bus1=p1udm318.1.2 bus2=p1ulv1853.1.2 switch=n enabled=y phases=2 Linecode=1P_OH_AL_4/0_Zuzara_2

New Line.l(r:p1udm318-p1ulv2238) Units=km Length=0.062566 bus1=p1udm318.1.2 bus2=p1ulv2238.1.2 switch=n enabled=y phases=2 Linecode=1P_OH_AL_4/0_Zuzara_2

New Line.l(r:p1udm318-p1udt85lv) Units=km Length=0.0154389 bus1=p1udt85lv.1.2 bus2=p1udm318.1.2 switch=n enabled=y phases=2 Linecode=1P_OH_AL_2/0_Rucina_2

New Line.l(r:p1udm320-p1ulv4789) Units=km Length=0.0470995 bus1=p1udm320.1.2 bus2=p1ulv4789.1.2 switch=n enabled=y phases=2 Linecode=1P_OH_AL_4/0_Zuzara_2

New Line.l(r:p1udm317-p1ulv88) Units=km Length=0.030183900000000003 bus1=p1udm317.1.2 bus2=p1ulv88.1.2 switch=n enabled=y phases=2 Linecode=1P_OH_AL_4/0_Zuzara_2

New Line.l(r:p1udm317-p1udm320) Units=km Length=0.017168400000000004 bus1=p1udm320.1.2 bus2=p1udm317.1.2 switch=n enabled=y phases=2 Linecode=1P_OH_AL_2/0_Rucina_2

New Line.l(r:p1udm320-p1udt85lv) Units=km Length=0.0308682 bus1=p1udt85lv.1.2 bus2=p1udm320.1.2 switch=n enabled=y phases=2 Linecode=1P_OH_AL_4/0_Zuzara_2

New Line.l(r:p1udt87lv-p1ulv90) Units=km Length=0.0165936 bus1=p1udt87lv.1.2 bus2=p1ulv90.1.2 switch=n enabled=y phases=2 Linecode=1P_UG_AL_1/0_Brenau_2

New Line.l(r:p1udm329-p1ulv8049) Units=km Length=0.0183967 bus1=p1udm329.1.2 bus2=p1ulv8049.1.2 switch=n enabled=y phases=2 Linecode=1P_UG_AL_1/0_Brenau_2

New Line.l(r:p1udm327-p1ulv5594) Units=km Length=0.0173135 bus1=p1udm327.1.2 bus2=p1ulv5594.1.2 switch=n enabled=y phases=2 Linecode=1P_UG_AL_1/0_Brenau_2

New Line.l(r:p1udm328-p1ulv7550) Units=km Length=0.0163283 bus1=p1udm328.1.2 bus2=p1ulv7550.1.2 switch=n enabled=y phases=2 Linecode=1P_UG_AL_1/0_Brenau_2

New Line.l(r:p1udm326-p1ulv3603) Units=km Length=0.0182019 bus1=p1udm326.1.2 bus2=p1ulv3603.1.2 switch=n enabled=y phases=2 Linecode=1P_UG_AL_1/0_Brenau_2

New Line.l(r:p1udm326-p1udm328) Units=km Length=0.00771283 bus1=p1udm328.1.2 bus2=p1udm326.1.2 switch=n enabled=y phases=2 Linecode=1P_UG_AL_1/0_Brenau_2

New Line.l(r:p1udm327-p1udm328) Units=km Length=0.00810172 bus1=p1udm327.1.2 bus2=p1udm328.1.2 switch=n enabled=y phases=2 Linecode=1P_UG_AL_2/0_Converse_2

New Line.l(r:p1udm327-p1udm329) Units=km Length=0.00809255 bus1=p1udm329.1.2 bus2=p1udm327.1.2 switch=n enabled=y phases=2 Linecode=1P_UG_AL_4/0_Sweetbriar_2

New Line.l(r:p1udm329-p1udt87lv) Units=km Length=0.00810172 bus1=p1udt87lv.1.2 bus2=p1udm329.1.2 switch=n enabled=y phases=2 Linecode=1P_UG_AL_4/0_Sweetbriar_2

New Line.l(r:p1udm330-p1ulv10878) Units=km Length=0.0183053 bus1=p1udm330.1.2 bus2=p1ulv10878.1.2 switch=n enabled=y phases=2 Linecode=1P_UG_AL_1/0_Brenau_2

New Line.l(r:p1udm325-p1ulv980) Units=km Length=0.0380204 bus1=p1udm325.1.2 bus2=p1ulv980.1.2 switch=n enabled=y phases=2 Linecode=1P_UG_AL_1/0_Brenau_2

New Line.l(r:p1udm325-p1udm330) Units=km Length=0.0381072 bus1=p1udm330.1.2 bus2=p1udm325.1.2 switch=n enabled=y phases=2 Linecode=1P_UG_AL_1/0_Brenau_2

New Line.l(r:p1udm330-p1udt87lv) Units=km Length=0.00809255 bus1=p1udt87lv.1.2 bus2=p1udm330.1.2 switch=n enabled=y phases=2 Linecode=1P_UG_AL_4/0_Sweetbriar_2

New Line.l(r:p1udt90lv-p1ulv93) Units=km Length=0.012166000000000001 bus1=p1udt90lv.1.2 bus2=p1ulv93.1.2 switch=n enabled=y phases=2 Linecode=1P_UG_AL_1/0_Brenau_2

New Line.l(r:p1udt90lv-p1ulv12065) Units=km Length=0.00502881 bus1=p1udt90lv.1.2 bus2=p1ulv12065.1.2 switch=n enabled=y phases=2 Linecode=1P_UG_AL_1/0_Brenau_2

New Line.l(r:p1udm339-p1ulv2627) Units=km Length=0.0120877 bus1=p1udm339.1.2 bus2=p1ulv2627.1.2 switch=n enabled=y phases=2 Linecode=1P_UG_AL_1/0_Brenau_2

New Line.l(r:p1udm339-p1udt90lv) Units=km Length=0.00820039 bus1=p1udt90lv.1.2 bus2=p1udm339.1.2 switch=n enabled=y phases=2 Linecode=1P_UG_AL_1/0_Brenau_2

New Line.l(r:p1udm340-p1ulv9579) Units=km Length=0.020247 bus1=p1udm340.1.2 bus2=p1ulv9579.1.2 switch=n enabled=y phases=2 Linecode=1P_UG_AL_1/0_Brenau_2

New Line.l(r:p1udm340-p1udt90lv) Units=km Length=0.00820039 bus1=p1udt90lv.1.2 bus2=p1udm340.1.2 switch=n enabled=y phases=2 Linecode=1P_UG_AL_1/0_Brenau_2

New Line.l(r:p1udt91lv-p1ulv2629) Units=km Length=0.0463164 bus1=p1udt91lv.1.2 bus2=p1ulv2629.1.2 switch=n enabled=y phases=2 Linecode=1P_UG_AL_1/0_Brenau_2

New Line.l(r:p1udt91lv-p1ulv12166) Units=km Length=0.0193857 bus1=p1udt91lv.1.2 bus2=p1ulv12166.1.2 switch=n enabled=y phases=2 Linecode=1P_UG_AL_1/0_Brenau_2

New Line.l(r:p1udm342-p1ulv94) Units=km Length=0.0822561 bus1=p1udm342.1.2 bus2=p1ulv94.1.2 switch=n enabled=y phases=2 Linecode=1P_UG_AL_1/0_Brenau_2

New Line.l(r:p1udm342-p1ulv6808) Units=km Length=0.0178658 bus1=p1udm342.1.2 bus2=p1ulv6808.1.2 switch=n enabled=y phases=2 Linecode=1P_UG_AL_1/0_Brenau_2

New Line.l(r:p1udm345-p1ulv2251) Units=km Length=0.0728897 bus1=p1udm345.1.2 bus2=p1ulv2251.1.2 switch=n enabled=y phases=2 Linecode=1P_UG_AL_1/0_Brenau_2

New Line.l(r:p1udm342-p1udm345) Units=km Length=0.016580200000000003 bus1=p1udm342.1.2 bus2=p1udm345.1.2 switch=n enabled=y phases=2 Linecode=1P_UG_AL_1/0_Brenau_2

New Line.l(r:p1udm342-p1udt91lv) Units=km Length=0.0165803 bus1=p1udt91lv.1.2 bus2=p1udm342.1.2 switch=n enabled=y phases=2 Linecode=1P_UG_AL_1/0_Brenau_2

New Line.l(r:p1udm343-p1ulv974) Units=km Length=0.0197133 bus1=p1udm343.1.2 bus2=p1ulv974.1.2 switch=n enabled=y phases=2 Linecode=1P_UG_AL_1/0_Brenau_2

New Line.l(r:p1udm344-p1ulv975) Units=km Length=0.0186207 bus1=p1udm344.1.2 bus2=p1ulv975.1.2 switch=n enabled=y phases=2 Linecode=1P_UG_AL_1/0_Brenau_2

New Line.l(r:p1udm343-p1udm344) Units=km Length=0.00904 bus1=p1udm343.1.2 bus2=p1udm344.1.2 switch=n enabled=y phases=2 Linecode=1P_UG_AL_1/0_Brenau_2

New Line.l(r:p1udm343-p1udt91lv) Units=km Length=0.00904 bus1=p1udt91lv.1.2 bus2=p1udm343.1.2 switch=n enabled=y phases=2 Linecode=1P_UG_AL_1/0_Brenau_2

New Line.l(r:p1udm349-p1ulv95) Units=km Length=0.0353082 bus1=p1udm349.1.2 bus2=p1ulv95.1.2 switch=n enabled=y phases=2 Linecode=1P_OH_AL_4/0_Zuzara_2

New Line.l(r:p1udm350-p1ulv1103) Units=km Length=0.0309146 bus1=p1udm350.1.2 bus2=p1ulv1103.1.2 switch=n enabled=y phases=2 Linecode=1P_OH_AL_4/0_Zuzara_2

New Line.l(r:p1udm349-p1udm350) Units=km Length=0.0525424 bus1=p1udm349.1.2 bus2=p1udm350.1.2 switch=n enabled=y phases=2 Linecode=1P_OH_AL_4/0_Zuzara_2

New Line.l(r:p1udm349-p1udt92lv) Units=km Length=0.0167741 bus1=p1udt92lv.1.2 bus2=p1udm349.1.2 switch=n enabled=y phases=2 Linecode=1P_OH_AL_2/0_Rucina_2

New Line.l(r:p1udm351-p1ulv7787) Units=km Length=0.0129616 bus1=p1udm351.1.2 bus2=p1ulv7787.1.2 switch=n enabled=y phases=2 Linecode=1P_OH_AL_2/0_Rucina_2

New Line.l(r:p1udm352-p1ulv8181) Units=km Length=0.0183928 bus1=p1udm352.1.2 bus2=p1ulv8181.1.2 switch=n enabled=y phases=2 Linecode=1P_OH_AL_2/0_Rucina_2

New Line.l(r:p1udm351-p1udm352) Units=km Length=0.0226711 bus1=p1udm351.1.2 bus2=p1udm352.1.2 switch=n enabled=y phases=2 Linecode=1P_OH_AL_2/0_Rucina_2

New Line.l(r:p1udm351-p1udt92lv) Units=km Length=0.0167821 bus1=p1udt92lv.1.2 bus2=p1udm351.1.2 switch=n enabled=y phases=2 Linecode=1P_OH_AL_2/0_Rucina_2

New Line.l(r:p1udt106lv-p1ulv109) Units=km Length=0.0183423 bus1=p1udt106lv.1.2 bus2=p1ulv109.1.2 switch=n enabled=y phases=2 Linecode=1P_OH_AL_2/0_Rucina_2

New Line.l(r:p1udt106lv-p1ulv8065) Units=km Length=0.00979409 bus1=p1udt106lv.1.2 bus2=p1ulv8065.1.2 switch=n enabled=y phases=2 Linecode=1P_OH_AL_2/0_Rucina_2

New Line.l(r:p1udm412-p1ulv3621) Units=km Length=0.015169 bus1=p1udm412.1.2 bus2=p1ulv3621.1.2 switch=n enabled=y phases=2 Linecode=1P_OH_AL_2/0_Rucina_2

New Line.l(r:p1udm412-p1udt106lv) Units=km Length=0.0183919 bus1=p1udt106lv.1.2 bus2=p1udm412.1.2 switch=n enabled=y phases=2 Linecode=1P_OH_AL_2/0_Rucina_2

New Line.l(r:p1udt107lv-p1ulv1365) Units=km Length=0.00988169 bus1=p1udt107lv.1.2 bus2=p1ulv1365.1.2 switch=n enabled=y phases=2 Linecode=1P_OH_AL_2/0_Rucina_2

New Line.l(r:p1udm414-p1ulv110) Units=km Length=0.0212836 bus1=p1udm414.1.2 bus2=p1ulv110.1.2 switch=n enabled=y phases=2 Linecode=1P_OH_AL_2/0_Rucina_2

New Line.l(r:p1udm414-p1udt107lv) Units=km Length=0.0178829 bus1=p1udt107lv.1.2 bus2=p1udm414.1.2 switch=n enabled=y phases=2 Linecode=1P_OH_AL_2/0_Rucina_2

New Line.l(r:p1udm416-p1ulv5156) Units=km Length=0.012472900000000002 bus1=p1udm416.1.2 bus2=p1ulv5156.1.2 switch=n enabled=y phases=2 Linecode=1P_OH_AL_2/0_Rucina_2

New Line.l(r:p1udm416-p1ulv11123) Units=km Length=0.0161466 bus1=p1udm416.1.2 bus2=p1ulv11123.1.2 switch=n enabled=y phases=2 Linecode=1P_OH_AL_2/0_Rucina_2

New Line.l(r:p1udm416-p1udt107lv) Units=km Length=0.0190499 bus1=p1udt107lv.1.2 bus2=p1udm416.1.2 switch=n enabled=y phases=2 Linecode=1P_OH_AL_2/0_Rucina_2

New Line.l(r:p1udm418-p1ulv111) Units=km Length=0.017844 bus1=p1udm418.1.2 bus2=p1ulv111.1.2 switch=n enabled=y phases=2 Linecode=1P_OH_AL_2/0_Rucina_2

New Line.l(r:p1udm418-p1udt108lv) Units=km Length=0.0177985 bus1=p1udt108lv.1.2 bus2=p1udm418.1.2 switch=n enabled=y phases=2 Linecode=1P_OH_AL_2/0_Rucina_2

New Line.l(r:p1udm419-p1ulv7445) Units=km Length=0.018693 bus1=p1udm419.1.2 bus2=p1ulv7445.1.2 switch=n enabled=y phases=2 Linecode=1P_OH_AL_2/0_Rucina_2

New Line.l(r:p1udm419-p1udt108lv) Units=km Length=0.0169147 bus1=p1udt108lv.1.2 bus2=p1udm419.1.2 switch=n enabled=y phases=2 Linecode=1P_OH_AL_2/0_Rucina_2

New Line.l(r:p1udm688-p1ulv194) Units=km Length=0.0168989 bus1=p1udm688.1.2 bus2=p1ulv194.1.2 switch=n enabled=y phases=2 Linecode=1P_UG_AL_1/0_Brenau_2

New Line.l(r:p1udm688-p1ulv9046) Units=km Length=0.00367947 bus1=p1udm688.1.2 bus2=p1ulv9046.1.2 switch=n enabled=y phases=2 Linecode=1P_UG_AL_4/0_Sweetbriar_2

New Line.l(r:p1udm688-p1udt188lv) Units=km Length=0.00904724 bus1=p1udt188lv.1.2 bus2=p1udm688.1.2 switch=n enabled=y phases=2 Linecode=1P_UG_AL_4/0_Sweetbriar_2

New Line.l(r:p1udm689-p1ulv8380) Units=km Length=0.00527664 bus1=p1udm689.1.2 bus2=p1ulv8380.1.2 switch=n enabled=y phases=2 Linecode=1P_UG_AL_4/0_Sweetbriar_2

New Line.l(r:p1udm689-p1udt188lv) Units=km Length=0.00906027 bus1=p1udt188lv.1.2 bus2=p1udm689.1.2 switch=n enabled=y phases=2 Linecode=1P_UG_AL_4/0_Sweetbriar_2

New Line.l(r:p1udt197lv-p1ulv206) Units=km Length=0.0145873 bus1=p1udt197lv.1.2 bus2=p1ulv206.1.2 switch=n enabled=y phases=2 Linecode=1P_OH_AL_2/0_Rucina_2

New Line.l(r:p1udm724-p1ulv977) Units=km Length=0.0222758 bus1=p1udm724.1.2 bus2=p1ulv977.1.2 switch=n enabled=y phases=2 Linecode=1P_OH_AL_2/0_Rucina_2

New Line.l(r:p1udm724-p1ulv5798) Units=km Length=0.00941217 bus1=p1udm724.1.2 bus2=p1ulv5798.1.2 switch=n enabled=y phases=2 Linecode=1P_OH_AL_2/0_Rucina_2

New Line.l(r:p1udm724-p1udt197lv) Units=km Length=0.0191857 bus1=p1udt197lv.1.2 bus2=p1udm724.1.2 switch=n enabled=y phases=2 Linecode=1P_OH_AL_2/0_Rucina_2

New Line.l(r:p1udm725-p1ulv2621) Units=km Length=0.0212058 bus1=p1udm725.1.2 bus2=p1ulv2621.1.2 switch=n enabled=y phases=2 Linecode=1P_OH_AL_2/0_Rucina_2

New Line.l(r:p1udm725-p1udt197lv) Units=km Length=0.0191772 bus1=p1udt197lv.1.2 bus2=p1udm725.1.2 switch=n enabled=y phases=2 Linecode=1P_OH_AL_2/0_Rucina_2

New Line.l(r:p1udt198lv-p1ulv2483) Units=km Length=0.0179097 bus1=p1udt198lv.1.2 bus2=p1ulv2483.1.2 switch=n enabled=y phases=2 Linecode=1P_OH_AL_2/0_Rucina_2

New Line.l(r:p1udt198lv-p1ulv10997) Units=km Length=0.0109221 bus1=p1udt198lv.1.2 bus2=p1ulv10997.1.2 switch=n enabled=y phases=2 Linecode=1P_OH_AL_2/0_Rucina_2

New Line.l(r:p1udm727-p1ulv207) Units=km Length=0.0237043 bus1=p1udm727.1.2 bus2=p1ulv207.1.2 switch=n enabled=y phases=2 Linecode=1P_OH_AL_2/0_Rucina_2

New Line.l(r:p1udm727-p1ulv5255) Units=km Length=0.04063370000000001 bus1=p1udm727.1.2 bus2=p1ulv5255.1.2 switch=n enabled=y phases=2 Linecode=1P_OH_AL_4/0_Zuzara_2

New Line.l(r:p1udm727-p1ulv7176) Units=km Length=0.01016 bus1=p1udm727.1.2 bus2=p1ulv7176.1.2 switch=n enabled=y phases=2 Linecode=1P_OH_AL_2/0_Rucina_2

New Line.l(r:p1udm727-p1ulv7289) Units=km Length=0.0133157 bus1=p1udm727.1.2 bus2=p1ulv7289.1.2 switch=n enabled=y phases=2 Linecode=1P_OH_AL_2/0_Rucina_2

New Line.l(r:p1udm729-p1ulv3600) Units=km Length=0.0434116 bus1=p1udm729.1.2 bus2=p1ulv3600.1.2 switch=n enabled=y phases=2 Linecode=1P_OH_AL_4/0_Zuzara_2

New Line.l(r:p1udm727-p1udm729) Units=km Length=0.0191857 bus1=p1udm727.1.2 bus2=p1udm729.1.2 switch=n enabled=y phases=2 Linecode=1P_OH_AL_2/0_Rucina_2

New Line.l(r:p1udm727-p1udt198lv) Units=km Length=0.0191857 bus1=p1udt198lv.1.2 bus2=p1udm727.1.2 switch=n enabled=y phases=2 Linecode=1P_OH_AL_2/0_Rucina_2

New Line.l(r:p1udm733-p1ulv8405) Units=km Length=0.0131738 bus1=p1udm733.1.2 bus2=p1ulv8405.1.2 switch=n enabled=y phases=2 Linecode=1P_OH_AL_2/0_Rucina_2

New Line.l(r:p1udm733-p1ulv12398) Units=km Length=0.0215424 bus1=p1udm733.1.2 bus2=p1ulv12398.1.2 switch=n enabled=y phases=2 Linecode=1P_OH_AL_2/0_Rucina_2

New Line.l(r:p1udm733-p1udt198lv) Units=km Length=0.0191772 bus1=p1udt198lv.1.2 bus2=p1udm733.1.2 switch=n enabled=y phases=2 Linecode=1P_OH_AL_2/0_Rucina_2

New Line.l(r:p1udt199lv-p1ulv324) Units=km Length=0.00470601 bus1=p1udt199lv.1.2 bus2=p1ulv324.1.2 switch=n enabled=y phases=2 Linecode=1P_OH_AL_2/0_Rucina_2

New Line.l(r:p1udt199lv-p1ulv8279) Units=km Length=0.006429 bus1=p1udt199lv.1.2 bus2=p1ulv8279.1.2 switch=n enabled=y phases=2 Linecode=1P_OH_AL_2/0_Rucina_2

New Line.l(r:p1udm736-p1ulv208) Units=km Length=0.0200761 bus1=p1udm736.1.2 bus2=p1ulv208.1.2 switch=n enabled=y phases=2 Linecode=1P_OH_AL_2/0_Rucina_2

New Line.l(r:p1udm739-p1ulv4200) Units=km Length=0.0234164 bus1=p1udm739.1.2 bus2=p1ulv4200.1.2 switch=n enabled=y phases=2 Linecode=1P_OH_AL_2/0_Rucina_2

New Line.l(r:p1udm736-p1udm739) Units=km Length=0.0188977 bus1=p1udm736.1.2 bus2=p1udm739.1.2 switch=n enabled=y phases=2 Linecode=1P_OH_AL_2/0_Rucina_2

New Line.l(r:p1udm736-p1udt199lv) Units=km Length=0.0189028 bus1=p1udt199lv.1.2 bus2=p1udm736.1.2 switch=n enabled=y phases=2 Linecode=1P_OH_AL_2/0_Rucina_2

New Line.l(r:p1udm738-p1ulv755) Units=km Length=0.0228558 bus1=p1udm738.1.2 bus2=p1ulv755.1.2 switch=n enabled=y phases=2 Linecode=1P_OH_AL_2/0_Rucina_2

New Line.l(r:p1udm738-p1udt199lv) Units=km Length=0.0518282 bus1=p1udt199lv.1.2 bus2=p1udm738.1.2 switch=n enabled=y phases=2 Linecode=1P_OH_AL_4/0_Zuzara_2

New Line.l(r:p1udt213lv-p1ulv223) Units=km Length=0.055323000000000004 bus1=p1udt213lv.1.2 bus2=p1ulv223.1.2 switch=n enabled=y phases=2 Linecode=1P_OH_AL_4/0_Zuzara_2

New Line.l(r:p1udt302lv-p1ulv321) Units=km Length=0.0546266 bus1=p1udt302lv.1.2 bus2=p1ulv321.1.2 switch=n enabled=y phases=2 Linecode=1P_OH_AL_4/0_Zuzara_2

New Line.l(r:p1udt302lv-p1ulv9205) Units=km Length=0.0268171 bus1=p1udt302lv.1.2 bus2=p1ulv9205.1.2 switch=n enabled=y phases=2 Linecode=1P_OH_AL_2/0_Rucina_2

New Line.l(r:p1udm1098-p1ulv4563) Units=km Length=0.0220212 bus1=p1udm1098.1.2 bus2=p1ulv4563.1.2 switch=n enabled=y phases=2 Linecode=1P_OH_AL_2/0_Rucina_2

New Line.l(r:p1udm1098-p1ulv5352) Units=km Length=0.06567690000000001 bus1=p1udm1098.1.2 bus2=p1ulv5352.1.2 switch=n enabled=y phases=2 Linecode=1P_OH_AL_4/0_Zuzara_2

New Line.l(r:p1udm1098-p1udt302lv) Units=km Length=0.00831472 bus1=p1udt302lv.1.2 bus2=p1udm1098.1.2 switch=n enabled=y phases=2 Linecode=1P_OH_AL_2/0_Rucina_2

New Line.l(r:p1udm1100-p1ulv6670) Units=km Length=0.046993200000000006 bus1=p1udm1100.1.2 bus2=p1ulv6670.1.2 switch=n enabled=y phases=2 Linecode=1P_OH_AL_4/0_Zuzara_2

New Line.l(r:p1udm1100-p1udt302lv) Units=km Length=0.008205130000000001 bus1=p1udt302lv.1.2 bus2=p1udm1100.1.2 switch=n enabled=y phases=2 Linecode=1P_OH_AL_2/0_Rucina_2

New Line.l(r:p1udt303lv-p1ulv12291) Units=km Length=0.0205473 bus1=p1udt303lv.1.2 bus2=p1ulv12291.1.2 switch=n enabled=y phases=2 Linecode=1P_OH_AL_2/0_Rucina_2

New Line.l(r:p1udm1104-p1ulv6938) Units=km Length=0.0195848 bus1=p1udm1104.1.2 bus2=p1ulv6938.1.2 switch=n enabled=y phases=2 Linecode=1P_OH_AL_2/0_Rucina_2

New Line.l(r:p1udm1104-p1ulv11343) Units=km Length=0.0236546 bus1=p1udm1104.1.2 bus2=p1ulv11343.1.2 switch=n enabled=y phases=2 Linecode=1P_OH_AL_2/0_Rucina_2

New Line.l(r:p1udm1102-p1ulv322) Units=km Length=0.0124197 bus1=p1udm1102.1.2 bus2=p1ulv322.1.2 switch=n enabled=y phases=2 Linecode=1P_OH_AL_2/0_Rucina_2

New Line.l(r:p1udm1102-p1udm1104) Units=km Length=0.0234378 bus1=p1udm1104.1.2 bus2=p1udm1102.1.2 switch=n enabled=y phases=2 Linecode=1P_OH_AL_2/0_Rucina_2

New Line.l(r:p1udm1103-p1ulv6671) Units=km Length=0.0107461 bus1=p1udm1103.1.2 bus2=p1ulv6671.1.2 switch=n enabled=y phases=2 Linecode=1P_OH_AL_2/0_Rucina_2

New Line.l(r:p1udm1103-p1udm1104) Units=km Length=0.0686335 bus1=p1udm1104.1.2 bus2=p1udm1103.1.2 switch=n enabled=y phases=2 Linecode=1P_OH_AL_4/0_Zuzara_2

New Line.l(r:p1udm1104-p1udt303lv) Units=km Length=0.019459 bus1=p1udt303lv.1.2 bus2=p1udm1104.1.2 switch=n enabled=y phases=2 Linecode=1P_OH_AL_2/0_Rucina_2_4

New Line.l(r:p1udm1106-p1ulv9686) Units=km Length=0.0203266 bus1=p1udm1106.1.2 bus2=p1ulv9686.1.2 switch=n enabled=y phases=2 Linecode=1P_OH_AL_2/0_Rucina_2

New Line.l(r:p1udm1105-p1ulv7791) Units=km Length=0.0214591 bus1=p1udm1105.1.2 bus2=p1ulv7791.1.2 switch=n enabled=y phases=2 Linecode=1P_OH_AL_2/0_Rucina_2

New Line.l(r:p1udm1105-p1udm1106) Units=km Length=0.038918 bus1=p1udm1106.1.2 bus2=p1udm1105.1.2 switch=n enabled=y phases=2 Linecode=1P_OH_AL_4/0_Zuzara_2

New Line.l(r:p1udm1106-p1udt303lv) Units=km Length=0.0194503 bus1=p1udt303lv.1.2 bus2=p1udm1106.1.2 switch=n enabled=y phases=2 Linecode=1P_OH_AL_2/0_Rucina_2

New Line.l(r:p1udt304lv-p1ulv2850) Units=km Length=0.0221267 bus1=p1udt304lv.1.2 bus2=p1ulv2850.1.2 switch=n enabled=y phases=2 Linecode=1P_OH_AL_2/0_Rucina_2

New Line.l(r:p1udt304lv-p1ulv11947) Units=km Length=0.061455100000000006 bus1=p1udt304lv.1.2 bus2=p1ulv11947.1.2 switch=n enabled=y phases=2 Linecode=1P_OH_AL_4/0_Zuzara_2

New Line.l(r:p1udm1109-p1ulv323) Units=km Length=0.0329727 bus1=p1udm1109.1.2 bus2=p1ulv323.1.2 switch=n enabled=y phases=2 Linecode=1P_OH_AL_4/0_Zuzara_2

New Line.l(r:p1udm1109-p1ulv10263) Units=km Length=0.0557853 bus1=p1udm1109.1.2 bus2=p1ulv10263.1.2 switch=n enabled=y phases=2 Linecode=1P_OH_AL_4/0_Zuzara_2

New Line.l(r:p1udm1109-p1udt304lv) Units=km Length=0.0154389 bus1=p1udt304lv.1.2 bus2=p1udm1109.1.2 switch=n enabled=y phases=2 Linecode=1P_OH_AL_2/0_Rucina_2

New Line.l(r:p1udm1113-p1ulv10657) Units=km Length=0.0239088 bus1=p1udm1113.1.2 bus2=p1ulv10657.1.2 switch=n enabled=y phases=2 Linecode=1P_OH_AL_2/0_Rucina_2

New Line.l(r:p1udm1111-p1ulv4564) Units=km Length=0.0708038 bus1=p1udm1111.1.2 bus2=p1ulv4564.1.2 switch=n enabled=y phases=2 Linecode=1P_OH_AL_4/0_Zuzara_2

New Line.l(r:p1udm1111-p1udm1113) Units=km Length=0.00838594 bus1=p1udm1113.1.2 bus2=p1udm1111.1.2 switch=n enabled=y phases=2 Linecode=1P_OH_AL_2/0_Rucina_2

New Line.l(r:p1udm1113-p1udt304lv) Units=km Length=0.0177308 bus1=p1udt304lv.1.2 bus2=p1udm1113.1.2 switch=n enabled=y phases=2 Linecode=1P_OH_AL_2/0_Rucina_2

New Line.l(r:p1udt305lv-p1ulv325) Units=km Length=0.030258 bus1=p1udt305lv.1.2 bus2=p1ulv325.1.2 switch=n enabled=y phases=2 Linecode=1P_UG_AL_1/0_Brenau_2

New Line.l(r:p1udt307lv-p1ulv11110) Units=km Length=0.0188496 bus1=p1udt307lv.1.2 bus2=p1ulv11110.1.2 switch=n enabled=y phases=2 Linecode=1P_UG_AL_1/0_Brenau_2

New Line.l(r:p1udm1121-p1ulv327) Units=km Length=0.0162659 bus1=p1udm1121.1.2 bus2=p1ulv327.1.2 switch=n enabled=y phases=2 Linecode=1P_UG_AL_1/0_Brenau_2

New Line.l(r:p1udm1121-p1udt307lv) Units=km Length=0.0140299 bus1=p1udt307lv.1.2 bus2=p1udm1121.1.2 switch=n enabled=y phases=2 Linecode=1P_UG_AL_1/0_Brenau_2

New Line.l(r:p1udm1122-p1ulv9573) Units=km Length=0.007163580000000001 bus1=p1udm1122.1.2 bus2=p1ulv9573.1.2 switch=n enabled=y phases=2 Linecode=1P_UG_AL_1/0_Brenau_2

New Line.l(r:p1udm1122-p1udt307lv) Units=km Length=0.0133219 bus1=p1udt307lv.1.2 bus2=p1udm1122.1.2 switch=n enabled=y phases=2 Linecode=1P_UG_AL_1/0_Brenau_2

New Line.l(r:p1udt309lv-p1ulv330) Units=km Length=0.0130508 bus1=p1udt309lv.1.2 bus2=p1ulv330.1.2 switch=n enabled=y phases=2 Linecode=1P_UG_AL_1/0_Brenau_2

New Line.l(r:p1udm1126-p1ulv329) Units=km Length=0.00675633 bus1=p1udm1126.1.2 bus2=p1ulv329.1.2 switch=n enabled=y phases=2 Linecode=1P_UG_AL_1/0_Brenau_2

New Line.l(r:p1udm1126-p1ulv7292) Units=km Length=0.00420119 bus1=p1udm1126.1.2 bus2=p1ulv7292.1.2 switch=n enabled=y phases=2 Linecode=1P_UG_AL_1/0_Brenau_2

New Line.l(r:p1udm1129-p1ulv4438) Units=km Length=0.029815400000000002 bus1=p1udm1129.1.2 bus2=p1ulv4438.1.2 switch=n enabled=y phases=2 Linecode=1P_UG_AL_1/0_Brenau_2

New Line.l(r:p1udm1126-p1udm1129) Units=km Length=0.00986309 bus1=p1udm1126.1.2 bus2=p1udm1129.1.2 switch=n enabled=y phases=2 Linecode=1P_UG_AL_1/0_Brenau_2

New Line.l(r:p1udm1126-p1udt309lv) Units=km Length=0.00986309 bus1=p1udt309lv.1.2 bus2=p1udm1126.1.2 switch=n enabled=y phases=2 Linecode=1P_UG_AL_4/0_Sweetbriar_2

New Line.l(r:p1udm1128-p1ulv1475) Units=km Length=0.0314535 bus1=p1udm1128.1.2 bus2=p1ulv1475.1.2 switch=n enabled=y phases=2 Linecode=1P_UG_AL_1/0_Brenau_2

New Line.l(r:p1udm1128-p1udt309lv) Units=km Length=0.0571767 bus1=p1udt309lv.1.2 bus2=p1udm1128.1.2 switch=n enabled=y phases=2 Linecode=1P_UG_AL_1/0_Brenau_2

New Line.l(r:p1udm1131-p1ulv331) Units=km Length=0.0248857 bus1=p1udm1131.1.2 bus2=p1ulv331.1.2 switch=n enabled=y phases=2 Linecode=1P_UG_AL_1/0_Brenau_2

New Line.l(r:p1udm1132-p1ulv1982) Units=km Length=0.0181031 bus1=p1udm1132.1.2 bus2=p1ulv1982.1.2 switch=n enabled=y phases=2 Linecode=1P_UG_AL_1/0_Brenau_2

New Line.l(r:p1udm1133-p1ulv2489) Units=km Length=0.0136963 bus1=p1udm1133.1.2 bus2=p1ulv2489.1.2 switch=n enabled=y phases=2 Linecode=1P_UG_AL_1/0_Brenau_2

New Line.l(r:p1udm1132-p1udm1133) Units=km Length=0.00914257 bus1=p1udm1132.1.2 bus2=p1udm1133.1.2 switch=n enabled=y phases=2 Linecode=1P_UG_AL_1/0_Brenau_2

New Line.l(r:p1udm1131-p1udm1132) Units=km Length=0.009207390000000001 bus1=p1udm1131.1.2 bus2=p1udm1132.1.2 switch=n enabled=y phases=2 Linecode=1P_UG_AL_1/0_Brenau_2

New Line.l(r:p1udm1131-p1udt310lv) Units=km Length=0.00919766 bus1=p1udt310lv.1.2 bus2=p1udm1131.1.2 switch=n enabled=y phases=2 Linecode=1P_UG_AL_4/0_Sweetbriar_2

New Line.l(r:p1udm1134-p1ulv2628) Units=km Length=0.0293109 bus1=p1udm1134.1.2 bus2=p1ulv2628.1.2 switch=n enabled=y phases=2 Linecode=1P_UG_AL_1/0_Brenau_2

New Line.l(r:p1udm1134-p1ulv12171) Units=km Length=0.0112949 bus1=p1udm1134.1.2 bus2=p1ulv12171.1.2 switch=n enabled=y phases=2 Linecode=1P_UG_AL_1/0_Brenau_2

New Line.l(r:p1udm1135-p1ulv5599) Units=km Length=0.0280885 bus1=p1udm1135.1.2 bus2=p1ulv5599.1.2 switch=n enabled=y phases=2 Linecode=1P_UG_AL_1/0_Brenau_2

New Line.l(r:p1udm1135-p1ulv11598) Units=km Length=0.0161338 bus1=p1udm1135.1.2 bus2=p1ulv11598.1.2 switch=n enabled=y phases=2 Linecode=1P_UG_AL_1/0_Brenau_2

New Line.l(r:p1udm1134-p1udm1135) Units=km Length=0.009207390000000001 bus1=p1udm1134.1.2 bus2=p1udm1135.1.2 switch=n enabled=y phases=2 Linecode=1P_UG_AL_2/0_Converse_2

New Line.l(r:p1udm1134-p1udt310lv) Units=km Length=0.009207390000000001 bus1=p1udt310lv.1.2 bus2=p1udm1134.1.2 switch=n enabled=y phases=2 Linecode=1P_UG_AL_4/0_Sweetbriar_2

New Line.l(r:p1udt322lv-p1ulv995) Units=km Length=0.0342825 bus1=p1udt322lv.1.2 bus2=p1ulv995.1.2 switch=n enabled=y phases=2 Linecode=1P_UG_AL_1/0_Brenau_2

New Line.l(r:p1udt322lv-p1ulv8302) Units=km Length=0.00887934 bus1=p1udt322lv.1.2 bus2=p1ulv8302.1.2 switch=n enabled=y phases=2 Linecode=1P_UG_AL_1/0_Brenau_2

New Line.l(r:p1udm1193-p1ulv345) Units=km Length=0.011371800000000001 bus1=p1udm1193.1.2 bus2=p1ulv345.1.2 switch=n enabled=y phases=2 Linecode=1P_UG_AL_1/0_Brenau_2

New Line.l(r:p1udm1197-p1ulv8434) Units=km Length=0.0201522 bus1=p1udm1197.1.2 bus2=p1ulv8434.1.2 switch=n enabled=y phases=2 Linecode=1P_UG_AL_1/0_Brenau_2

New Line.l(r:p1udm1193-p1udm1197) Units=km Length=0.0172497 bus1=p1udm1193.1.2 bus2=p1udm1197.1.2 switch=n enabled=y phases=2 Linecode=1P_UG_AL_1/0_Brenau_2

New Line.l(r:p1udm1193-p1udt322lv) Units=km Length=0.00862833 bus1=p1udt322lv.1.2 bus2=p1udm1193.1.2 switch=n enabled=y phases=2 Linecode=1P_UG_AL_2/0_Converse_2

New Line.l(r:p1udm1195-p1ulv2874) Units=km Length=0.017564300000000005 bus1=p1udm1195.1.2 bus2=p1ulv2874.1.2 switch=n enabled=y phases=2 Linecode=1P_UG_AL_1/0_Brenau_2

New Line.l(r:p1udm1195-p1udt322lv) Units=km Length=0.0190115 bus1=p1udt322lv.1.2 bus2=p1udm1195.1.2 switch=n enabled=y phases=2 Linecode=1P_UG_AL_1/0_Brenau_2

New Line.l(r:p1udm1500-p1ulv439) Units=km Length=0.0121358 bus1=p1udm1500.1.2 bus2=p1ulv439.1.2 switch=n enabled=y phases=2 Linecode=1P_UG_AL_1/0_Brenau_2

New Line.l(r:p1udm1500-p1udt409lv) Units=km Length=0.00909907 bus1=p1udt409lv.1.2 bus2=p1udm1500.1.2 switch=n enabled=y phases=2 Linecode=1P_UG_AL_1/0_Brenau_2

New Line.l(r:p1udm1501-p1ulv2112) Units=km Length=0.014281600000000002 bus1=p1udm1501.1.2 bus2=p1ulv2112.1.2 switch=n enabled=y phases=2 Linecode=1P_UG_AL_1/0_Brenau_2

New Line.l(r:p1udm1501-p1udt409lv) Units=km Length=0.009095140000000002 bus1=p1udt409lv.1.2 bus2=p1udm1501.1.2 switch=n enabled=y phases=2 Linecode=1P_UG_AL_1/0_Brenau_2

New Line.l(r:p1udt410lv-p1ulv440) Units=km Length=0.0118322 bus1=p1udt410lv.1.2 bus2=p1ulv440.1.2 switch=n enabled=y phases=2 Linecode=1P_UG_AL_1/0_Brenau_2

New Line.l(r:p1udm1503-p1ulv2480) Units=km Length=0.0126878 bus1=p1udm1503.1.2 bus2=p1ulv2480.1.2 switch=n enabled=y phases=2 Linecode=1P_UG_AL_1/0_Brenau_2

New Line.l(r:p1udm1503-p1udt410lv) Units=km Length=0.0629416 bus1=p1udt410lv.1.2 bus2=p1udm1503.1.2 switch=n enabled=y phases=2 Linecode=1P_UG_AL_1/0_Brenau_2

New Line.l(r:p1udm1504-p1ulv8933) Units=km Length=0.00929362 bus1=p1udm1504.1.2 bus2=p1ulv8933.1.2 switch=n enabled=y phases=2 Linecode=1P_UG_AL_1/0_Brenau_2

New Line.l(r:p1udm1504-p1udt410lv) Units=km Length=0.014393800000000002 bus1=p1udt410lv.1.2 bus2=p1udm1504.1.2 switch=n enabled=y phases=2 Linecode=1P_UG_AL_1/0_Brenau_2

New Line.l(r:p1udt411lv-p1ulv441) Units=km Length=0.0154204 bus1=p1udt411lv.1.2 bus2=p1ulv441.1.2 switch=n enabled=y phases=2 Linecode=1P_UG_AL_1/0_Brenau_2

New Line.l(r:p1udt411lv-p1ulv10137) Units=km Length=0.0234216 bus1=p1udt411lv.1.2 bus2=p1ulv10137.1.2 switch=n enabled=y phases=2 Linecode=1P_UG_AL_1/0_Brenau_2

New Line.l(r:p1udm1506-p1ulv5024) Units=km Length=0.018218900000000003 bus1=p1udm1506.1.2 bus2=p1ulv5024.1.2 switch=n enabled=y phases=2 Linecode=1P_UG_AL_4/0_Sweetbriar_2

New Line.l(r:p1udm1506-p1udt411lv) Units=km Length=0.0950719 bus1=p1udt411lv.1.2 bus2=p1udm1506.1.2 switch=n enabled=y phases=2 Linecode=1P_UG_AL_4/0_Sweetbriar_2

New Line.l(r:p1udm1508-p1ulv442) Units=km Length=0.0201247 bus1=p1udm1508.1.2 bus2=p1ulv442.1.2 switch=n enabled=y phases=2 Linecode=1P_OH_AL_2/0_Rucina_2

New Line.l(r:p1udm1508-p1udt412lv) Units=km Length=0.0315037 bus1=p1udt412lv.1.2 bus2=p1udm1508.1.2 switch=n enabled=y phases=2 Linecode=1P_OH_AL_4/0_Zuzara_2

New Line.l(r:p1udm1509-p1ulv5595) Units=km Length=0.0105529 bus1=p1udm1509.1.2 bus2=p1ulv5595.1.2 switch=n enabled=y phases=2 Linecode=1P_OH_AL_2/0_Rucina_2

New Line.l(r:p1udm1509-p1udt412lv) Units=km Length=0.03245000000000001 bus1=p1udt412lv.1.2 bus2=p1udm1509.1.2 switch=n enabled=y phases=2 Linecode=1P_OH_AL_4/0_Zuzara_2

New Line.l(r:p1udt413lv-p1ulv443) Units=km Length=0.0316545 bus1=p1udt413lv.1.2 bus2=p1ulv443.1.2 switch=n enabled=y phases=2 Linecode=1P_UG_AL_1/0_Brenau_2

New Line.l(r:p1udt413lv-p1ulv1722) Units=km Length=0.0109469 bus1=p1udt413lv.1.2 bus2=p1ulv1722.1.2 switch=n enabled=y phases=2 Linecode=1P_UG_AL_1/0_Brenau_2

New Line.l(r:p1udm1512-p1ulv11001) Units=km Length=0.025766100000000004 bus1=p1udm1512.1.2 bus2=p1ulv11001.1.2 switch=n enabled=y phases=2 Linecode=1P_UG_AL_1/0_Brenau_2

New Line.l(r:p1udm1512-p1udt413lv) Units=km Length=0.00947652 bus1=p1udt413lv.1.2 bus2=p1udm1512.1.2 switch=n enabled=y phases=2 Linecode=1P_UG_AL_1/0_Brenau_2

New Line.l(r:p1udt414lv-p1ulv444) Units=km Length=0.0655128 bus1=p1udt414lv.1.2 bus2=p1ulv444.1.2 switch=n enabled=y phases=2 Linecode=1P_UG_AL_1/0_Brenau_2

New Line.l(r:p1udt414lv-p1ulv536) Units=km Length=0.00930041 bus1=p1udt414lv.1.2 bus2=p1ulv536.1.2 switch=n enabled=y phases=2 Linecode=1P_UG_AL_1/0_Brenau_2

New Line.l(r:p1udt414lv-p1ulv1857) Units=km Length=0.015110400000000001 bus1=p1udt414lv.1.2 bus2=p1ulv1857.1.2 switch=n enabled=y phases=2 Linecode=1P_UG_AL_1/0_Brenau_2

New Line.l(r:p1udt414lv-p1ulv3960) Units=km Length=0.0429099 bus1=p1udt414lv.1.2 bus2=p1ulv3960.1.2 switch=n enabled=y phases=2 Linecode=1P_UG_AL_1/0_Brenau_2

New Line.l(r:p1udt414lv-p1ulv9578) Units=km Length=0.0467443 bus1=p1udt414lv.1.2 bus2=p1ulv9578.1.2 switch=n enabled=y phases=2 Linecode=1P_UG_AL_1/0_Brenau_2

New Line.l(r:p1udt414lv-p1ulv11114) Units=km Length=0.0195649 bus1=p1udt414lv.1.2 bus2=p1ulv11114.1.2 switch=n enabled=y phases=2 Linecode=1P_UG_AL_1/0_Brenau_2

New Line.l(r:p1udm1515-p1ulv1224) Units=km Length=0.0269238 bus1=p1udm1515.1.2 bus2=p1ulv1224.1.2 switch=n enabled=y phases=2 Linecode=1P_UG_AL_1/0_Brenau_2

New Line.l(r:p1udm1515-p1udt414lv) Units=km Length=0.00890313 bus1=p1udt414lv.1.2 bus2=p1udm1515.1.2 switch=n enabled=y phases=2 Linecode=1P_UG_AL_1/0_Brenau_2

New Line.l(r:p1udt415lv-p1ulv8543) Units=km Length=0.0203815 bus1=p1udt415lv.1.2 bus2=p1ulv8543.1.2 switch=n enabled=y phases=2 Linecode=1P_UG_AL_1/0_Brenau_2

New Line.l(r:p1udm1520-p1ulv445) Units=km Length=0.0156758 bus1=p1udm1520.1.2 bus2=p1ulv445.1.2 switch=n enabled=y phases=2 Linecode=1P_UG_AL_1/0_Brenau_2

New Line.l(r:p1udm1520-p1ulv11712) Units=km Length=0.0169539 bus1=p1udm1520.1.2 bus2=p1ulv11712.1.2 switch=n enabled=y phases=2 Linecode=1P_UG_AL_1/0_Brenau_2

New Line.l(r:p1udm1520-p1udt415lv) Units=km Length=0.00989328 bus1=p1udt415lv.1.2 bus2=p1udm1520.1.2 switch=n enabled=y phases=2 Linecode=1P_UG_AL_1/0_Brenau_2

New Line.l(r:p1udm1521-p1ulv7678) Units=km Length=0.019894400000000003 bus1=p1udm1521.1.2 bus2=p1ulv7678.1.2 switch=n enabled=y phases=2 Linecode=1P_UG_AL_1/0_Brenau_2

New Line.l(r:p1udm1524-p1ulv12064) Units=km Length=0.020333000000000004 bus1=p1udm1524.1.2 bus2=p1ulv12064.1.2 switch=n enabled=y phases=2 Linecode=1P_UG_AL_1/0_Brenau_2

New Line.l(r:p1udm1521-p1udm1524) Units=km Length=0.00990517 bus1=p1udm1521.1.2 bus2=p1udm1524.1.2 switch=n enabled=y phases=2 Linecode=1P_UG_AL_1/0_Brenau_2

New Line.l(r:p1udm1521-p1udt415lv) Units=km Length=0.00990306 bus1=p1udt415lv.1.2 bus2=p1udm1521.1.2 switch=n enabled=y phases=2 Linecode=1P_UG_AL_2/0_Converse_2

New Line.l(r:p1udt425lv-p1ulv5815) Units=km Length=0.009992 bus1=p1udt425lv.1.2 bus2=p1ulv5815.1.2 switch=n enabled=y phases=2 Linecode=1P_OH_AL_2/0_Rucina_2

New Line.l(r:p1udm1573-p1ulv4116) Units=km Length=0.0179444 bus1=p1udm1573.1.2 bus2=p1ulv4116.1.2 switch=n enabled=y phases=2 Linecode=1P_OH_AL_2/0_Rucina_2

New Line.l(r:p1udm1573-p1ulv6687) Units=km Length=0.00527565 bus1=p1udm1573.1.2 bus2=p1ulv6687.1.2 switch=n enabled=y phases=2 Linecode=1P_OH_AL_2/0_Rucina_2

New Line.l(r:p1udm1573-p1udt425lv) Units=km Length=0.0154511 bus1=p1udt425lv.1.2 bus2=p1udm1573.1.2 switch=n enabled=y phases=2 Linecode=1P_OH_AL_2/0_Rucina_2

New Line.l(r:p1udm1576-p1ulv8432) Units=km Length=0.0203427 bus1=p1udm1576.1.2 bus2=p1ulv8432.1.2 switch=n enabled=y phases=2 Linecode=1P_OH_AL_2/0_Rucina_2

New Line.l(r:p1udm1572-p1ulv456) Units=km Length=0.00432926 bus1=p1udm1572.1.2 bus2=p1ulv456.1.2 switch=n enabled=y phases=2 Linecode=1P_OH_AL_2/0_Rucina_2

New Line.l(r:p1udm1572-p1udm1576) Units=km Length=0.0181461 bus1=p1udm1576.1.2 bus2=p1udm1572.1.2 switch=n enabled=y phases=2 Linecode=1P_OH_AL_2/0_Rucina_2

New Line.l(r:p1udm1576-p1udt425lv) Units=km Length=0.010835 bus1=p1udt425lv.1.2 bus2=p1udm1576.1.2 switch=n enabled=y phases=2 Linecode=1P_OH_AL_2/0_Rucina_2

New Line.l(r:p1udm1582-p1ulv458) Units=km Length=0.0194981 bus1=p1udm1582.1.2 bus2=p1ulv458.1.2 switch=n enabled=y phases=2 Linecode=1P_OH_AL_2/0_Rucina_2

New Line.l(r:p1udm1582-p1udt427lv) Units=km Length=0.0572681 bus1=p1udt427lv.1.2 bus2=p1udm1582.1.2 switch=n enabled=y phases=2 Linecode=1P_OH_AL_4/0_Zuzara_2

New Line.l(r:p1udm1584-p1ulv7203) Units=km Length=0.0315841 bus1=p1udm1584.1.2 bus2=p1ulv7203.1.2 switch=n enabled=y phases=2 Linecode=1P_OH_AL_4/0_Zuzara_2

New Line.l(r:p1udm1583-p1ulv1874) Units=km Length=0.0202987 bus1=p1udm1583.1.2 bus2=p1ulv1874.1.2 switch=n enabled=y phases=2 Linecode=1P_OH_AL_2/0_Rucina_2

New Line.l(r:p1udm1583-p1udm1584) Units=km Length=0.0192878 bus1=p1udm1584.1.2 bus2=p1udm1583.1.2 switch=n enabled=y phases=2 Linecode=1P_OH_AL_2/0_Rucina_2

New Line.l(r:p1udm1584-p1udt427lv) Units=km Length=0.0192876 bus1=p1udt427lv.1.2 bus2=p1udm1584.1.2 switch=n enabled=y phases=2 Linecode=1P_OH_AL_2/0_Rucina_2

New Line.l(r:p1udt485lv-p1ulv518) Units=km Length=0.0705256 bus1=p1udt485lv.1.2 bus2=p1ulv518.1.2 switch=n enabled=y phases=2 Linecode=1P_UG_AL_1/0_Brenau_2

New Line.l(r:p1udt496lv-p1ulv8048) Units=km Length=0.013996000000000001 bus1=p1udt496lv.1.2 bus2=p1ulv8048.1.2 switch=n enabled=y phases=2 Linecode=1P_OH_AL_2/0_Rucina_2

New Line.l(r:p1udm1824-p1ulv2851) Units=km Length=0.0291265 bus1=p1udm1824.1.2 bus2=p1ulv2851.1.2 switch=n enabled=y phases=2 Linecode=1P_OH_AL_4/0_Zuzara_2

New Line.l(r:p1udm1824-p1udt496lv) Units=km Length=0.0372032 bus1=p1udt496lv.1.2 bus2=p1udm1824.1.2 switch=n enabled=y phases=2 Linecode=1P_OH_AL_4/0_Zuzara_2

New Line.l(r:p1udm1826-p1ulv8666) Units=km Length=0.0240362 bus1=p1udm1826.1.2 bus2=p1ulv8666.1.2 switch=n enabled=y phases=2 Linecode=1P_OH_AL_2/0_Rucina_2

New Line.l(r:p1udm1823-p1ulv529) Units=km Length=0.01089 bus1=p1udm1823.1.2 bus2=p1ulv529.1.2 switch=n enabled=y phases=2 Linecode=1P_OH_AL_2/0_Rucina_2

New Line.l(r:p1udm1827-p1ulv12502) Units=km Length=0.00947715 bus1=p1udm1827.1.2 bus2=p1ulv12502.1.2 switch=n enabled=y phases=2 Linecode=1P_OH_AL_2/0_Rucina_2

New Line.l(r:p1udm1823-p1udm1827) Units=km Length=0.016896 bus1=p1udm1823.1.2 bus2=p1udm1827.1.2 switch=n enabled=y phases=2 Linecode=1P_OH_AL_2/0_Rucina_2

New Line.l(r:p1udm1823-p1udm1826) Units=km Length=0.00615532 bus1=p1udm1826.1.2 bus2=p1udm1823.1.2 switch=n enabled=y phases=2 Linecode=1P_OH_AL_2/0_Rucina_2

New Line.l(r:p1udm1826-p1udt496lv) Units=km Length=0.0185974 bus1=p1udt496lv.1.2 bus2=p1udm1826.1.2 switch=n enabled=y phases=2 Linecode=1P_OH_AL_2/0_Rucina_2

New Line.l(r:p1udt499lv-p1ulv532) Units=km Length=0.017564 bus1=p1udt499lv.1.2 bus2=p1ulv532.1.2 switch=n enabled=y phases=2 Linecode=1P_OH_AL_2/0_Rucina_2

New Line.l(r:p1udt499lv-p1ulv8517) Units=km Length=0.0121956 bus1=p1udt499lv.1.2 bus2=p1ulv8517.1.2 switch=n enabled=y phases=2 Linecode=1P_OH_AL_2/0_Rucina_2

New Line.l(r:p1udm1835-p1ulv5026) Units=km Length=0.0186267 bus1=p1udm1835.1.2 bus2=p1ulv5026.1.2 switch=n enabled=y phases=2 Linecode=1P_OH_AL_2/0_Rucina_2

New Line.l(r:p1udm1838-p1ulv10118) Units=km Length=0.00972967 bus1=p1udm1838.1.2 bus2=p1ulv10118.1.2 switch=n enabled=y phases=2 Linecode=1P_OH_AL_2/0_Rucina_2

New Line.l(r:p1udm1835-p1udm1838) Units=km Length=0.00953428 bus1=p1udm1835.1.2 bus2=p1udm1838.1.2 switch=n enabled=y phases=2 Linecode=1P_OH_AL_2/0_Rucina_2

New Line.l(r:p1udm1835-p1udt499lv) Units=km Length=0.0199055 bus1=p1udt499lv.1.2 bus2=p1udm1835.1.2 switch=n enabled=y phases=2 Linecode=1P_OH_AL_2/0_Rucina_2

New Line.l(r:p1udm1836-p1ulv8411) Units=km Length=0.018506 bus1=p1udm1836.1.2 bus2=p1ulv8411.1.2 switch=n enabled=y phases=2 Linecode=1P_OH_AL_2/0_Rucina_2

New Line.l(r:p1udm1836-p1udt499lv) Units=km Length=0.01991 bus1=p1udt499lv.1.2 bus2=p1udm1836.1.2 switch=n enabled=y phases=2 Linecode=1P_OH_AL_2/0_Rucina_2

New Line.l(r:p1udt500lv-p1ulv533) Units=km Length=0.0152882 bus1=p1udt500lv.1.2 bus2=p1ulv533.1.2 switch=n enabled=y phases=2 Linecode=1P_OH_AL_2/0_Rucina_2

New Line.l(r:p1udm1841-p1ulv7293) Units=km Length=0.017075600000000003 bus1=p1udm1841.1.2 bus2=p1ulv7293.1.2 switch=n enabled=y phases=2 Linecode=1P_OH_AL_2/0_Rucina_2

New Line.l(r:p1udm1841-p1udt500lv) Units=km Length=0.0191307 bus1=p1udt500lv.1.2 bus2=p1udm1841.1.2 switch=n enabled=y phases=2 Linecode=1P_OH_AL_2/0_Rucina_2

New Line.l(r:p1udm1842-p1ulv11593) Units=km Length=0.0163054 bus1=p1udm1842.1.2 bus2=p1ulv11593.1.2 switch=n enabled=y phases=2 Linecode=1P_OH_AL_2/0_Rucina_2

New Line.l(r:p1udm1840-p1ulv6673) Units=km Length=0.0161023 bus1=p1udm1840.1.2 bus2=p1ulv6673.1.2 switch=n enabled=y phases=2 Linecode=1P_OH_AL_2/0_Rucina_2

New Line.l(r:p1udm1840-p1udm1842) Units=km Length=0.0167082 bus1=p1udm1842.1.2 bus2=p1udm1840.1.2 switch=n enabled=y phases=2 Linecode=1P_OH_AL_2/0_Rucina_2

New Line.l(r:p1udm1842-p1udt500lv) Units=km Length=0.0191203 bus1=p1udt500lv.1.2 bus2=p1udm1842.1.2 switch=n enabled=y phases=2 Linecode=1P_OH_AL_2/0_Rucina_2

New Line.l(r:p1udt501lv-p1ulv6543) Units=km Length=0.0135478 bus1=p1udt501lv.1.2 bus2=p1ulv6543.1.2 switch=n enabled=y phases=2 Linecode=1P_UG_AL_1/0_Brenau_2

New Line.l(r:p1udt501lv-p1ulv10506) Units=km Length=0.020971400000000005 bus1=p1udt501lv.1.2 bus2=p1ulv10506.1.2 switch=n enabled=y phases=2 Linecode=1P_UG_AL_1/0_Brenau_2

New Line.l(r:p1udm1843-p1ulv534) Units=km Length=0.0132735 bus1=p1udm1843.1.2 bus2=p1ulv534.1.2 switch=n enabled=y phases=2 Linecode=1P_UG_AL_1/0_Brenau_2

New Line.l(r:p1udm1847-p1ulv12063) Units=km Length=0.0222503 bus1=p1udm1847.1.2 bus2=p1ulv12063.1.2 switch=n enabled=y phases=2 Linecode=1P_UG_AL_1/0_Brenau_2

New Line.l(r:p1udm1843-p1udm1847) Units=km Length=0.00994073 bus1=p1udm1843.1.2 bus2=p1udm1847.1.2 switch=n enabled=y phases=2 Linecode=1P_UG_AL_1/0_Brenau_2

New Line.l(r:p1udm1843-p1udt501lv) Units=km Length=0.00995064 bus1=p1udt501lv.1.2 bus2=p1udm1843.1.2 switch=n enabled=y phases=2 Linecode=1P_UG_AL_2/0_Converse_2

New Line.l(r:p1udm1845-p1ulv7184) Units=km Length=0.018461 bus1=p1udm1845.1.2 bus2=p1ulv7184.1.2 switch=n enabled=y phases=2 Linecode=1P_UG_AL_1/0_Brenau_2

New Line.l(r:p1udm1845-p1udt501lv) Units=km Length=0.0198999 bus1=p1udt501lv.1.2 bus2=p1udm1845.1.2 switch=n enabled=y phases=2 Linecode=1P_UG_AL_1/0_Brenau_2

New Line.l(r:p1udm1892-p1ulv549) Units=km Length=0.0262898 bus1=p1udm1892.1.2 bus2=p1ulv549.1.2 switch=n enabled=y phases=2 Linecode=1P_OH_AL_2/0_Rucina_2

New Line.l(r:p1udm1892-p1ulv6429) Units=km Length=0.0143348 bus1=p1udm1892.1.2 bus2=p1ulv6429.1.2 switch=n enabled=y phases=2 Linecode=1P_OH_AL_2/0_Rucina_2

New Line.l(r:p1udm1892-p1udt514lv) Units=km Length=0.019602700000000004 bus1=p1udt514lv.1.2 bus2=p1udm1892.1.2 switch=n enabled=y phases=2 Linecode=1P_OH_AL_2/0_Rucina_2

New Line.l(r:p1udm1893-p1ulv3852) Units=km Length=0.00871253 bus1=p1udm1893.1.2 bus2=p1ulv3852.1.2 switch=n enabled=y phases=2 Linecode=1P_OH_AL_2/0_Rucina_2

New Line.l(r:p1udm1893-p1udt514lv) Units=km Length=0.07570930000000001 bus1=p1udt514lv.1.2 bus2=p1udm1893.1.2 switch=n enabled=y phases=2 Linecode=1P_OH_AL_4/0_Zuzara_2

New Line.l(r:p1udt583lv-p1ulv3447) Units=km Length=0.035140000000000005 bus1=p1udt583lv.1.2 bus2=p1ulv3447.1.2 switch=n enabled=y phases=2 Linecode=1P_UG_AL_1/0_Brenau_2

New Line.l(r:p1udt583lv-p1ulv8164) Units=km Length=0.018041700000000004 bus1=p1udt583lv.1.2 bus2=p1ulv8164.1.2 switch=n enabled=y phases=2 Linecode=1P_UG_AL_1/0_Brenau_2

New Line.l(r:p1udm2149-p1ulv1577) Units=km Length=0.0145374 bus1=p1udm2149.1.2 bus2=p1ulv1577.1.2 switch=n enabled=y phases=2 Linecode=1P_UG_AL_1/0_Brenau_2

New Line.l(r:p1udm2152-p1ulv8024) Units=km Length=0.0179848 bus1=p1udm2152.1.2 bus2=p1ulv8024.1.2 switch=n enabled=y phases=2 Linecode=1P_UG_AL_1/0_Brenau_2

New Line.l(r:p1udm2154-p1ulv10367) Units=km Length=0.0110084 bus1=p1udm2154.1.2 bus2=p1ulv10367.1.2 switch=n enabled=y phases=2 Linecode=1P_UG_AL_1/0_Brenau_2

New Line.l(r:p1udm2152-p1udm2154) Units=km Length=0.00933174 bus1=p1udm2152.1.2 bus2=p1udm2154.1.2 switch=n enabled=y phases=2 Linecode=1P_UG_AL_1/0_Brenau_2

New Line.l(r:p1udm2149-p1udm2152) Units=km Length=0.00933193 bus1=p1udm2149.1.2 bus2=p1udm2152.1.2 switch=n enabled=y phases=2 Linecode=1P_UG_AL_2/0_Converse_2

New Line.l(r:p1udm2149-p1udt583lv) Units=km Length=0.00933174 bus1=p1udt583lv.1.2 bus2=p1udm2149.1.2 switch=n enabled=y phases=2 Linecode=1P_UG_AL_4/0_Sweetbriar_2

New Line.l(r:p1udm2155-p1ulv11207) Units=km Length=0.010729600000000002 bus1=p1udm2155.1.2 bus2=p1ulv11207.1.2 switch=n enabled=y phases=2 Linecode=1P_UG_AL_1/0_Brenau_2

New Line.l(r:p1udm2148-p1ulv623) Units=km Length=0.016136900000000003 bus1=p1udm2148.1.2 bus2=p1ulv623.1.2 switch=n enabled=y phases=2 Linecode=1P_UG_AL_1/0_Brenau_2

New Line.l(r:p1udm2150-p1ulv2723) Units=km Length=0.00793587 bus1=p1udm2150.1.2 bus2=p1ulv2723.1.2 switch=n enabled=y phases=2 Linecode=1P_UG_AL_1/0_Brenau_2

New Line.l(r:p1udm2148-p1udm2150) Units=km Length=0.0186637 bus1=p1udm2148.1.2 bus2=p1udm2150.1.2 switch=n enabled=y phases=2 Linecode=1P_UG_AL_1/0_Brenau_2

New Line.l(r:p1udm2148-p1udm2155) Units=km Length=0.00933193 bus1=p1udm2155.1.2 bus2=p1udm2148.1.2 switch=n enabled=y phases=2 Linecode=1P_UG_AL_2/0_Converse_2

New Line.l(r:p1udm2155-p1udt583lv) Units=km Length=0.00933193 bus1=p1udt583lv.1.2 bus2=p1udm2155.1.2 switch=n enabled=y phases=2 Linecode=1P_UG_AL_4/0_Sweetbriar_2

New Line.l(r:p1udt592lv-p1ulv634) Units=km Length=0.0274385 bus1=p1udt592lv.1.2 bus2=p1ulv634.1.2 switch=n enabled=y phases=2 Linecode=1P_OH_AL_4/0_Zuzara_2

New Line.l(r:p1udt593lv-p1ulv635) Units=km Length=0.0342582 bus1=p1udt593lv.1.2 bus2=p1ulv635.1.2 switch=n enabled=y phases=2 Linecode=1P_OH_AL_4/0_Zuzara_2

New Line.l(r:p1udt593lv-p1ulv868) Units=km Length=0.0172957 bus1=p1udt593lv.1.2 bus2=p1ulv868.1.2 switch=n enabled=y phases=2 Linecode=1P_OH_AL_2/0_Rucina_2

New Line.l(r:p1udt593lv-p1ulv5253) Units=km Length=0.0390264 bus1=p1udt593lv.1.2 bus2=p1ulv5253.1.2 switch=n enabled=y phases=2 Linecode=1P_OH_AL_4/0_Zuzara_2

New Line.l(r:p1udm2200-p1ulv3219) Units=km Length=0.0247983 bus1=p1udm2200.1.2 bus2=p1ulv3219.1.2 switch=n enabled=y phases=2 Linecode=1P_OH_AL_2/0_Rucina_2

New Line.l(r:p1udm2199-p1ulv2479) Units=km Length=0.00952568 bus1=p1udm2199.1.2 bus2=p1ulv2479.1.2 switch=n enabled=y phases=2 Linecode=1P_OH_AL_2/0_Rucina_2

New Line.l(r:p1udm2199-p1ulv11216) Units=km Length=0.0271445 bus1=p1udm2199.1.2 bus2=p1ulv11216.1.2 switch=n enabled=y phases=2 Linecode=1P_OH_AL_4/0_Zuzara_2

New Line.l(r:p1udm2204-p1ulv11945) Units=km Length=0.0133225 bus1=p1udm2204.1.2 bus2=p1ulv11945.1.2 switch=n enabled=y phases=2 Linecode=1P_OH_AL_2/0_Rucina_2

New Line.l(r:p1udm2199-p1udm2204) Units=km Length=0.0151217 bus1=p1udm2199.1.2 bus2=p1udm2204.1.2 switch=n enabled=y phases=2 Linecode=1P_OH_AL_2/0_Rucina_2

New Line.l(r:p1udm2199-p1udm2200) Units=km Length=0.0151217 bus1=p1udm2200.1.2 bus2=p1udm2199.1.2 switch=n enabled=y phases=2 Linecode=1P_OH_AL_2/0_Rucina_2

New Line.l(r:p1udm2200-p1udt593lv) Units=km Length=0.00596201 bus1=p1udt593lv.1.2 bus2=p1udm2200.1.2 switch=n enabled=y phases=2 Linecode=1P_OH_AL_2/0_Rucina_2

New Line.l(r:p1udm2202-p1ulv9812) Units=km Length=0.0237583 bus1=p1udm2202.1.2 bus2=p1ulv9812.1.2 switch=n enabled=y phases=2 Linecode=1P_OH_AL_2/0_Rucina_2

New Line.l(r:p1udm2202-p1udt593lv) Units=km Length=0.0322385 bus1=p1udt593lv.1.2 bus2=p1udm2202.1.2 switch=n enabled=y phases=2 Linecode=1P_OH_AL_4/0_Zuzara_2

New Line.l(r:p1udt594lv-p1ulv7174) Units=km Length=0.012663800000000001 bus1=p1udt594lv.1.2 bus2=p1ulv7174.1.2 switch=n enabled=y phases=2 Linecode=1P_UG_AL_1/0_Brenau_2

New Line.l(r:p1udt594lv-p1ulv11108) Units=km Length=0.00974678 bus1=p1udt594lv.1.2 bus2=p1ulv11108.1.2 switch=n enabled=y phases=2 Linecode=1P_UG_AL_1/0_Brenau_2

New Line.l(r:p1udm2206-p1ulv2239) Units=km Length=0.0104427 bus1=p1udm2206.1.2 bus2=p1ulv2239.1.2 switch=n enabled=y phases=2 Linecode=1P_UG_AL_1/0_Brenau_2

New Line.l(r:p1udm2205-p1ulv636) Units=km Length=0.010283500000000001 bus1=p1udm2205.1.2 bus2=p1ulv636.1.2 switch=n enabled=y phases=2 Linecode=1P_UG_AL_1/0_Brenau_2

New Line.l(r:p1udm2205-p1udm2206) Units=km Length=0.0181019 bus1=p1udm2206.1.2 bus2=p1udm2205.1.2 switch=n enabled=y phases=2 Linecode=1P_UG_AL_1/0_Brenau_2

New Line.l(r:p1udm2206-p1udt594lv) Units=km Length=0.0271527 bus1=p1udt594lv.1.2 bus2=p1udm2206.1.2 switch=n enabled=y phases=2 Linecode=1P_UG_AL_1/0_Brenau_2

New Line.l(r:p1udm2209-p1ulv10656) Units=km Length=0.0143862 bus1=p1udm2209.1.2 bus2=p1ulv10656.1.2 switch=n enabled=y phases=2 Linecode=1P_UG_AL_1/0_Brenau_2

New Line.l(r:p1udm2208-p1ulv7286) Units=km Length=0.0339888 bus1=p1udm2208.1.2 bus2=p1ulv7286.1.2 switch=n enabled=y phases=2 Linecode=1P_UG_AL_1/0_Brenau_2

New Line.l(r:p1udm2208-p1udm2209) Units=km Length=0.0238155 bus1=p1udm2209.1.2 bus2=p1udm2208.1.2 switch=n enabled=y phases=2 Linecode=1P_UG_AL_1/0_Brenau_2

New Line.l(r:p1udm2209-p1udt594lv) Units=km Length=0.017514100000000005 bus1=p1udt594lv.1.2 bus2=p1udm2209.1.2 switch=n enabled=y phases=2 Linecode=1P_UG_AL_1/0_Brenau_2

New Line.l(r:p1udt597lv-p1ulv639) Units=km Length=0.0444943 bus1=p1udt597lv.1.2 bus2=p1ulv639.1.2 switch=n enabled=y phases=2 Linecode=1P_OH_AL_4/0_Zuzara_2

New Line.l(r:p1udt597lv-p1ulv1591) Units=km Length=0.0131367 bus1=p1udt597lv.1.2 bus2=p1ulv1591.1.2 switch=n enabled=y phases=2 Linecode=1P_OH_AL_2/0_Rucina_2

New Line.l(r:p1udm2220-p1ulv4441) Units=km Length=0.0227831 bus1=p1udm2220.1.2 bus2=p1ulv4441.1.2 switch=n enabled=y phases=2 Linecode=1P_OH_AL_2/0_Rucina_2

New Line.l(r:p1udm2220-p1udt597lv) Units=km Length=0.018671600000000003 bus1=p1udt597lv.1.2 bus2=p1udm2220.1.2 switch=n enabled=y phases=2 Linecode=1P_OH_AL_2/0_Rucina_2

New Line.l(r:p1udm2221-p1ulv8186) Units=km Length=0.0406077 bus1=p1udm2221.1.2 bus2=p1ulv8186.1.2 switch=n enabled=y phases=2 Linecode=1P_OH_AL_4/0_Zuzara_2

New Line.l(r:p1udm2222-p1ulv11830) Units=km Length=0.0143705 bus1=p1udm2222.1.2 bus2=p1ulv11830.1.2 switch=n enabled=y phases=2 Linecode=1P_OH_AL_2/0_Rucina_2

New Line.l(r:p1udm2221-p1udm2222) Units=km Length=0.0158536 bus1=p1udm2221.1.2 bus2=p1udm2222.1.2 switch=n enabled=y phases=2 Linecode=1P_OH_AL_2/0_Rucina_2

New Line.l(r:p1udm2221-p1udt597lv) Units=km Length=0.018671600000000003 bus1=p1udt597lv.1.2 bus2=p1udm2221.1.2 switch=n enabled=y phases=2 Linecode=1P_OH_AL_2/0_Rucina_2

New Line.l(r:p1udt598lv-p1ulv984) Units=km Length=0.0138882 bus1=p1udt598lv.1.2 bus2=p1ulv984.1.2 switch=n enabled=y phases=2 Linecode=1P_UG_AL_1/0_Brenau_2

New Line.l(r:p1udt598lv-p1ulv1858) Units=km Length=0.04488280000000001 bus1=p1udt598lv.1.2 bus2=p1ulv1858.1.2 switch=n enabled=y phases=2 Linecode=1P_UG_AL_1/0_Brenau_2

New Line.l(r:p1udt598lv-p1ulv2369) Units=km Length=0.0166912 bus1=p1udt598lv.1.2 bus2=p1ulv2369.1.2 switch=n enabled=y phases=2 Linecode=1P_UG_AL_1/0_Brenau_2

New Line.l(r:p1udt598lv-p1ulv4569) Units=km Length=0.0222725 bus1=p1udt598lv.1.2 bus2=p1ulv4569.1.2 switch=n enabled=y phases=2 Linecode=1P_UG_AL_1/0_Brenau_2

New Line.l(r:p1udm2223-p1ulv640) Units=km Length=0.014084100000000002 bus1=p1udm2223.1.2 bus2=p1ulv640.1.2 switch=n enabled=y phases=2 Linecode=1P_UG_AL_1/0_Brenau_2

New Line.l(r:p1udm2223-p1ulv2250) Units=km Length=0.023445500000000005 bus1=p1udm2223.1.2 bus2=p1ulv2250.1.2 switch=n enabled=y phases=2 Linecode=1P_UG_AL_1/0_Brenau_2

New Line.l(r:p1udm2223-p1udt598lv) Units=km Length=0.0182786 bus1=p1udt598lv.1.2 bus2=p1udm2223.1.2 switch=n enabled=y phases=2 Linecode=1P_UG_AL_2/0_Converse_2

New Line.l(r:p1udt613lv-p1ulv4694) Units=km Length=0.0219219 bus1=p1udt613lv.1.2 bus2=p1ulv4694.1.2 switch=n enabled=y phases=2 Linecode=1P_OH_AL_2/0_Rucina_2

New Line.l(r:p1udt613lv-p1ulv11731) Units=km Length=0.0199034 bus1=p1udt613lv.1.2 bus2=p1ulv11731.1.2 switch=n enabled=y phases=2 Linecode=1P_OH_AL_2/0_Rucina_2

New Line.l(r:p1udm2296-p1ulv659) Units=km Length=0.024177 bus1=p1udm2296.1.2 bus2=p1ulv659.1.2 switch=n enabled=y phases=2 Linecode=1P_OH_AL_2/0_Rucina_2

New Line.l(r:p1udm2296-p1udt613lv) Units=km Length=0.0167988 bus1=p1udt613lv.1.2 bus2=p1udm2296.1.2 switch=n enabled=y phases=2 Linecode=1P_OH_AL_2/0_Rucina_2

New Line.l(r:p1udm2298-p1ulv8069) Units=km Length=0.0274835 bus1=p1udm2298.1.2 bus2=p1ulv8069.1.2 switch=n enabled=y phases=2 Linecode=1P_OH_AL_4/0_Zuzara_2

New Line.l(r:p1udm2298-p1ulv8961) Units=km Length=0.0212197 bus1=p1udm2298.1.2 bus2=p1ulv8961.1.2 switch=n enabled=y phases=2 Linecode=1P_OH_AL_2/0_Rucina_2

New Line.l(r:p1udm2298-p1udt613lv) Units=km Length=0.016792 bus1=p1udt613lv.1.2 bus2=p1udm2298.1.2 switch=n enabled=y phases=2 Linecode=1P_OH_AL_2/0_Rucina_2

New Line.l(r:p1udm2511-p1ulv732) Units=km Length=0.00993251 bus1=p1udm2511.1.2 bus2=p1ulv732.1.2 switch=n enabled=y phases=2 Linecode=1P_UG_AL_1/0_Brenau_2

New Line.l(r:p1udm2512-p1ulv3810) Units=km Length=0.012776000000000001 bus1=p1udm2512.1.2 bus2=p1ulv3810.1.2 switch=n enabled=y phases=2 Linecode=1P_UG_AL_4/0_Sweetbriar_2

New Line.l(r:p1udm2511-p1udm2512) Units=km Length=0.0194613 bus1=p1udm2511.1.2 bus2=p1udm2512.1.2 switch=n enabled=y phases=2 Linecode=1P_UG_AL_4/0_Sweetbriar_2

New Line.l(r:p1udm2511-p1udt678lv) Units=km Length=0.00973559 bus1=p1udt678lv.1.2 bus2=p1udm2511.1.2 switch=n enabled=y phases=2 Linecode=1P_UG_AL_4/0_Sweetbriar_2

New Line.l(r:p1udm2513-p1ulv11089) Units=km Length=0.0148564 bus1=p1udm2513.1.2 bus2=p1ulv11089.1.2 switch=n enabled=y phases=2 Linecode=1P_UG_AL_1/0_Brenau_2

New Line.l(r:p1udm2513-p1udt678lv) Units=km Length=0.0194712 bus1=p1udt678lv.1.2 bus2=p1udm2513.1.2 switch=n enabled=y phases=2 Linecode=1P_UG_AL_1/0_Brenau_2

New Line.l(r:p1udm2585-p1ulv7544) Units=km Length=0.018119400000000004 bus1=p1udm2585.1.2 bus2=p1ulv7544.1.2 switch=n enabled=y phases=2 Linecode=1P_UG_AL_1/0_Brenau_2

New Line.l(r:p1udm2583-p1ulv750) Units=km Length=0.0178517 bus1=p1udm2583.1.2 bus2=p1ulv750.1.2 switch=n enabled=y phases=2 Linecode=1P_UG_AL_1/0_Brenau_2

New Line.l(r:p1udm2583-p1udm2585) Units=km Length=0.0192909 bus1=p1udm2585.1.2 bus2=p1udm2583.1.2 switch=n enabled=y phases=2 Linecode=1P_UG_AL_1/0_Brenau_2

New Line.l(r:p1udm2584-p1ulv6669) Units=km Length=0.03214 bus1=p1udm2584.1.2 bus2=p1ulv6669.1.2 switch=n enabled=y phases=2 Linecode=1P_UG_AL_1/0_Brenau_2

New Line.l(r:p1udm2584-p1udm2585) Units=km Length=0.0680928 bus1=p1udm2585.1.2 bus2=p1udm2584.1.2 switch=n enabled=y phases=2 Linecode=1P_UG_AL_1/0_Brenau_2

New Line.l(r:p1udm2585-p1udt693lv) Units=km Length=0.00795878 bus1=p1udt693lv.1.2 bus2=p1udm2585.1.2 switch=n enabled=y phases=2 Linecode=1P_UG_AL_4/0_Sweetbriar_2

New Line.l(r:p1udt694lv-p1ulv751) Units=km Length=0.011821700000000001 bus1=p1udt694lv.1.2 bus2=p1ulv751.1.2 switch=n enabled=y phases=2 Linecode=1P_UG_AL_1/0_Brenau_2

New Line.l(r:p1udt695lv-p1ulv752) Units=km Length=0.0655115 bus1=p1udt695lv.1.2 bus2=p1ulv752.1.2 switch=n enabled=y phases=2 Linecode=1P_OH_AL_4/0_Zuzara_2

New Line.l(r:p1udt695lv-p1ulv11948) Units=km Length=0.0147828 bus1=p1udt695lv.1.2 bus2=p1ulv11948.1.2 switch=n enabled=y phases=2 Linecode=1P_OH_AL_2/0_Rucina_2

New Line.l(r:p1udm2588-p1ulv753) Units=km Length=0.0208777 bus1=p1udm2588.1.2 bus2=p1ulv753.1.2 switch=n enabled=y phases=2 Linecode=1P_OH_AL_2/0_Rucina_2

New Line.l(r:p1udm2590-p1ulv5354) Units=km Length=0.018324000000000003 bus1=p1udm2590.1.2 bus2=p1ulv5354.1.2 switch=n enabled=y phases=2 Linecode=1P_OH_AL_2/0_Rucina_2

New Line.l(r:p1udm2588-p1udm2590) Units=km Length=0.017168400000000004 bus1=p1udm2588.1.2 bus2=p1udm2590.1.2 switch=n enabled=y phases=2 Linecode=1P_OH_AL_2/0_Rucina_2

New Line.l(r:p1udm2588-p1udt695lv) Units=km Length=0.017168400000000004 bus1=p1udt695lv.1.2 bus2=p1udm2588.1.2 switch=n enabled=y phases=2 Linecode=1P_OH_AL_2/0_Rucina_2

New Line.l(r:p1udm2589-p1ulv1586) Units=km Length=0.0107782 bus1=p1udm2589.1.2 bus2=p1ulv1586.1.2 switch=n enabled=y phases=2 Linecode=1P_OH_AL_2/0_Rucina_2

New Line.l(r:p1udm2589-p1udt695lv) Units=km Length=0.0154294 bus1=p1udt695lv.1.2 bus2=p1udm2589.1.2 switch=n enabled=y phases=2 Linecode=1P_OH_AL_2/0_Rucina_2

New Line.l(r:p1udt696lv-p1ulv754) Units=km Length=0.0303048 bus1=p1udt696lv.1.2 bus2=p1ulv754.1.2 switch=n enabled=y phases=2 Linecode=1P_OH_AL_4/0_Zuzara_2

New Line.l(r:p1udm2593-p1ulv9688) Units=km Length=0.0297132 bus1=p1udm2593.1.2 bus2=p1ulv9688.1.2 switch=n enabled=y phases=2 Linecode=1P_OH_AL_4/0_Zuzara_2

New Line.l(r:p1udm2593-p1udt696lv) Units=km Length=0.0164625 bus1=p1udt696lv.1.2 bus2=p1udm2593.1.2 switch=n enabled=y phases=2 Linecode=1P_OH_AL_2/0_Rucina_2

New Line.l(r:p1udm2594-p1ulv12503) Units=km Length=0.020936400000000004 bus1=p1udm2594.1.2 bus2=p1ulv12503.1.2 switch=n enabled=y phases=2 Linecode=1P_OH_AL_2/0_Rucina_2

New Line.l(r:p1udm2594-p1udt696lv) Units=km Length=0.0198841 bus1=p1udt696lv.1.2 bus2=p1udm2594.1.2 switch=n enabled=y phases=2 Linecode=1P_OH_AL_2/0_Rucina_2

New Line.l(r:p1udt698lv-p1ulv758) Units=km Length=0.0138179 bus1=p1udt698lv.1.2 bus2=p1ulv758.1.2 switch=n enabled=y phases=2 Linecode=1P_OH_AL_2/0_Rucina_2

New Line.l(r:p1udt698lv-p1ulv2368) Units=km Length=0.0188366 bus1=p1udt698lv.1.2 bus2=p1ulv2368.1.2 switch=n enabled=y phases=2 Linecode=1P_OH_AL_2/0_Rucina_2

New Line.l(r:p1udm2603-p1ulv1349) Units=km Length=0.0184553 bus1=p1udm2603.1.2 bus2=p1ulv1349.1.2 switch=n enabled=y phases=2 Linecode=1P_OH_AL_2/0_Rucina_2

New Line.l(r:p1udm2607-p1ulv8942) Units=km Length=0.00866793 bus1=p1udm2607.1.2 bus2=p1ulv8942.1.2 switch=n enabled=y phases=2 Linecode=1P_OH_AL_2/0_Rucina_2

New Line.l(r:p1udm2603-p1udm2607) Units=km Length=0.0551584 bus1=p1udm2603.1.2 bus2=p1udm2607.1.2 switch=n enabled=y phases=2 Linecode=1P_OH_AL_4/0_Zuzara_2

New Line.l(r:p1udm2603-p1udt698lv) Units=km Length=0.0151892 bus1=p1udt698lv.1.2 bus2=p1udm2603.1.2 switch=n enabled=y phases=2 Linecode=1P_OH_AL_2/0_Rucina_2

New Line.l(r:p1udm2604-p1ulv2248) Units=km Length=0.0165966 bus1=p1udm2604.1.2 bus2=p1ulv2248.1.2 switch=n enabled=y phases=2 Linecode=1P_OH_AL_2/0_Rucina_2

New Line.l(r:p1udm2606-p1ulv3839) Units=km Length=0.00201445 bus1=p1udm2606.1.2 bus2=p1ulv3839.1.2 switch=n enabled=y phases=2 Linecode=1P_OH_AL_4_Periwinkle_2

New Line.l(r:p1udm2604-p1udm2606) Units=km Length=0.0495604 bus1=p1udm2604.1.2 bus2=p1udm2606.1.2 switch=n enabled=y phases=2 Linecode=1P_OH_AL_4/0_Zuzara_2

New Line.l(r:p1udm2604-p1udt698lv) Units=km Length=0.0151835 bus1=p1udt698lv.1.2 bus2=p1udm2604.1.2 switch=n enabled=y phases=2 Linecode=1P_OH_AL_2/0_Rucina_2

New Line.l(r:p1udt706lv-p1ulv771) Units=km Length=0.0665069 bus1=p1udt706lv.1.2 bus2=p1ulv771.1.2 switch=n enabled=y phases=2 Linecode=1P_OH_AL_4/0_Zuzara_2

New Line.l(r:p1udt706lv-p1ulv4695) Units=km Length=0.0260754 bus1=p1udt706lv.1.2 bus2=p1ulv4695.1.2 switch=n enabled=y phases=2 Linecode=1P_OH_AL_2/0_Rucina_2

New Line.l(r:p1udt706lv-p1ulv11965) Units=km Length=0.0451848 bus1=p1udt706lv.1.2 bus2=p1ulv11965.1.2 switch=n enabled=y phases=2 Linecode=1P_OH_AL_4/0_Zuzara_2

New Line.l(r:p1udm2633-p1ulv7684) Units=km Length=0.024262000000000002 bus1=p1udm2633.1.2 bus2=p1ulv7684.1.2 switch=n enabled=y phases=2 Linecode=1P_OH_AL_2/0_Rucina_2

New Line.l(r:p1udm2631-p1ulv1122) Units=km Length=0.0220471 bus1=p1udm2631.1.2 bus2=p1ulv1122.1.2 switch=n enabled=y phases=2 Linecode=1P_OH_AL_2/0_Rucina_2

New Line.l(r:p1udm2631-p1udm2633) Units=km Length=0.013811300000000002 bus1=p1udm2633.1.2 bus2=p1udm2631.1.2 switch=n enabled=y phases=2 Linecode=1P_OH_AL_2/0_Rucina_2

New Line.l(r:p1udm2633-p1udt706lv) Units=km Length=0.0305768 bus1=p1udt706lv.1.2 bus2=p1udm2633.1.2 switch=n enabled=y phases=2 Linecode=1P_OH_AL_4/0_Zuzara_2

New Line.l(r:p1udm2634-p1ulv11964) Units=km Length=0.0743944 bus1=p1udm2634.1.2 bus2=p1ulv11964.1.2 switch=n enabled=y phases=2 Linecode=1P_OH_AL_4/0_Zuzara_2

New Line.l(r:p1udm2634-p1udt706lv) Units=km Length=0.0358584 bus1=p1udt706lv.1.2 bus2=p1udm2634.1.2 switch=n enabled=y phases=2 Linecode=1P_OH_AL_4/0_Zuzara_2

New Line.l(r:p1udm2636-p1ulv772) Units=km Length=0.0329641 bus1=p1udm2636.1.2 bus2=p1ulv772.1.2 switch=n enabled=y phases=2 Linecode=1P_OH_AL_4/0_Zuzara_2

New Line.l(r:p1udm2636-p1udt707lv) Units=km Length=0.0241725 bus1=p1udt707lv.1.2 bus2=p1udm2636.1.2 switch=n enabled=y phases=2 Linecode=1P_OH_AL_2/0_Rucina_2

New Line.l(r:p1udm2637-p1ulv3977) Units=km Length=0.0107429 bus1=p1udm2637.1.2 bus2=p1ulv3977.1.2 switch=n enabled=y phases=2 Linecode=1P_OH_AL_2/0_Rucina_2

New Line.l(r:p1udm2637-p1udt707lv) Units=km Length=0.0147518 bus1=p1udt707lv.1.2 bus2=p1udm2637.1.2 switch=n enabled=y phases=2 Linecode=1P_OH_AL_2/0_Rucina_2

New Line.l(r:p1udt708lv-p1ulv5934) Units=km Length=0.021903500000000003 bus1=p1udt708lv.1.2 bus2=p1ulv5934.1.2 switch=n enabled=y phases=2 Linecode=1P_OH_AL_2/0_Rucina_2

New Line.l(r:p1udt708lv-p1ulv7560) Units=km Length=0.0203088 bus1=p1udt708lv.1.2 bus2=p1ulv7560.1.2 switch=n enabled=y phases=2 Linecode=1P_OH_AL_2/0_Rucina_2

New Line.l(r:p1udm2638-p1ulv773) Units=km Length=0.023309100000000003 bus1=p1udm2638.1.2 bus2=p1ulv773.1.2 switch=n enabled=y phases=2 Linecode=1P_OH_AL_2/0_Rucina_2

New Line.l(r:p1udm2638-p1udt708lv) Units=km Length=0.0199695 bus1=p1udt708lv.1.2 bus2=p1udm2638.1.2 switch=n enabled=y phases=2 Linecode=1P_OH_AL_2/0_Rucina_2

New Line.l(r:p1udm2639-p1ulv4582) Units=km Length=0.0234281 bus1=p1udm2639.1.2 bus2=p1ulv4582.1.2 switch=n enabled=y phases=2 Linecode=1P_OH_AL_2/0_Rucina_2

New Line.l(r:p1udm2639-p1udt708lv) Units=km Length=0.0399319 bus1=p1udt708lv.1.2 bus2=p1udm2639.1.2 switch=n enabled=y phases=2 Linecode=1P_OH_AL_4/0_Zuzara_2

New Line.l(r:p1udm2642-p1ulv774) Units=km Length=0.0340623 bus1=p1udm2642.1.2 bus2=p1ulv774.1.2 switch=n enabled=y phases=2 Linecode=1P_OH_AL_4/0_Zuzara_2

New Line.l(r:p1udm2642-p1udt709lv) Units=km Length=0.0199624 bus1=p1udt709lv.1.2 bus2=p1udm2642.1.2 switch=n enabled=y phases=2 Linecode=1P_OH_AL_2/0_Rucina_2

New Line.l(r:p1udm2643-p1ulv3626) Units=km Length=0.0115646 bus1=p1udm2643.1.2 bus2=p1ulv3626.1.2 switch=n enabled=y phases=2 Linecode=1P_OH_AL_2/0_Rucina_2

New Line.l(r:p1udm2643-p1ulv10404) Units=km Length=0.0246852 bus1=p1udm2643.1.2 bus2=p1ulv10404.1.2 switch=n enabled=y phases=2 Linecode=1P_OH_AL_2/0_Rucina_2

New Line.l(r:p1udm2643-p1udt709lv) Units=km Length=0.0199695 bus1=p1udt709lv.1.2 bus2=p1udm2643.1.2 switch=n enabled=y phases=2 Linecode=1P_OH_AL_2/0_Rucina_2

New Line.l(r:p1udt784lv-p1ulv858) Units=km Length=0.0227004 bus1=p1udt784lv.1.2 bus2=p1ulv858.1.2 switch=n enabled=y phases=2 Linecode=1P_OH_AL_2/0_Rucina_2

...